REMARK  6 active torsions:
REMARK  status: ('A' for Active; 'I' for Inactive)
REMARK    1  A    between atoms: O1_1  and  C9_13 
REMARK    2  A    between atoms: O1_1  and  C10_14 
REMARK    3  A    between atoms: O2_2  and  C4_8 
REMARK    4  A    between atoms: O3_3  and  C5_9 
REMARK    5  A    between atoms: C1_5  and  C6_10 
REMARK    6  A    between atoms: C8_12  and  C10_14 
ROOT
HETATM    1  C1  UNL     1      -1.388   0.207  -0.248  1.00  0.00    -0.033 A 
HETATM    2  C2  UNL     1      -2.273  -0.831  -0.463  1.00  0.00     0.050 A 
HETATM    3  C3  UNL     1      -1.933   1.446  -0.050  1.00  0.00     0.014 A 
HETATM    4  C4  UNL     1      -3.638  -0.637  -0.478  1.00  0.00     0.099 A 
HETATM    5  C5  UNL     1      -4.167   0.639  -0.273  1.00  0.00     0.098 A 
HETATM    6  C7  UNL     1      -3.292   1.681  -0.058  1.00  0.00     0.040 A 
ENDROOT
BRANCH   1   7
HETATM    7  C6  UNL     1       0.042  -0.027  -0.237  1.00  0.00     0.017 C 
HETATM    8  C8  UNL     1       0.974   0.878  -0.044  1.00  0.00     0.083 C 
BRANCH   8   9
HETATM    9  C10 UNL     1       2.405   0.559  -0.048  1.00  0.00     0.282 C 
HETATM   10  O4  UNL     1       3.258   1.462   0.142  1.00  0.00    -0.260 OA
BRANCH   9  11
HETATM   11  O1  UNL     1       2.871  -0.726  -0.257  1.00  0.00    -0.319 OA
BRANCH  11  12
HETATM   12  C9  UNL     1       4.265  -0.963  -0.247  1.00  0.00     0.174 C 
HETATM   13  C11 UNL     1       4.852  -0.567   1.112  1.00  0.00     0.034 C 
ENDBRANCH  11  12
ENDBRANCH   9  11
ENDBRANCH   8   9
ENDBRANCH   1   7
BRANCH   4  14
HETATM   14  O2  UNL     1      -4.537  -1.668  -0.692  1.00  0.00    -0.358 OA
HETATM   15  H1  UNL     1      -4.213  -2.616  -0.847  1.00  0.00     0.217 HD
ENDBRANCH   4  14
BRANCH   5  16
HETATM   16  O3  UNL     1      -5.545   0.826  -0.291  1.00  0.00    -0.358 OA
HETATM   17  H2  UNL     1      -6.125   0.019  -0.454  1.00  0.00     0.217 HD
ENDBRANCH   5  16
TORSDOF 6
