REMARK  6 active torsions:
REMARK  status: ('A' for Active; 'I' for Inactive)
REMARK    1  A    between atoms: O2_2  and  C1_7 
REMARK    2  A    between atoms: O3_3  and  C7_13 
REMARK    3  A    between atoms: O4_4  and  C12_18 
REMARK    4  A    between atoms: O5_5  and  C13_19 
REMARK    5  A    between atoms: O6_6  and  C15_21 
REMARK    6  A    between atoms: C2_8  and  C6_12 
ROOT
HETATM    1  O1  UNL     1       0.226   0.586   0.467  1.00  0.00    -0.338 OA
HETATM    2  C1  UNL     1       0.394  -1.768   0.179  1.00  0.00     0.156 C 
HETATM    3  C2  UNL     1      -0.397  -0.550  -0.138  1.00  0.00     0.191 C 
HETATM    4  C3  UNL     1       1.808  -1.635  -0.280  1.00  0.00     0.079 C 
HETATM    5  C4  UNL     1       2.316  -0.235  -0.269  1.00  0.00     0.011 A 
HETATM    6  C5  UNL     1       1.537   0.841   0.096  1.00  0.00     0.081 A 
HETATM    7  C7  UNL     1       3.644  -0.007  -0.648  1.00  0.00     0.077 A 
HETATM    8  C8  UNL     1       2.079   2.109   0.081  1.00  0.00     0.074 A 
HETATM    9  C11 UNL     1       4.156   1.283  -0.652  1.00  0.00     0.073 A 
HETATM   10  C12 UNL     1       3.380   2.361  -0.287  1.00  0.00     0.071 A 
ENDROOT
BRANCH   3  11
HETATM   11  C6  UNL     1      -1.793  -0.563   0.299  1.00  0.00    -0.024 A 
HETATM   12  C9  UNL     1      -2.466   0.662   0.233  1.00  0.00     0.049 A 
HETATM   13  C13 UNL     1      -3.785   0.785   0.618  1.00  0.00     0.099 A 
HETATM   14  C15 UNL     1      -4.477  -0.319   1.084  1.00  0.00     0.098 A 
HETATM   15  C14 UNL     1      -3.839  -1.540   1.161  1.00  0.00     0.040 A 
HETATM   16  C10 UNL     1      -2.504  -1.624   0.762  1.00  0.00     0.013 A 
BRANCH  13  17
HETATM   17  O5  UNL     1      -4.421   2.017   0.538  1.00  0.00    -0.358 OA
HETATM   18  H4  UNL     1      -3.922   2.820   0.201  1.00  0.00     0.217 HD
ENDBRANCH  13  17
BRANCH  14  19
HETATM   19  O6  UNL     1      -5.809  -0.207   1.475  1.00  0.00    -0.358 OA
HETATM   20  H5  UNL     1      -6.270   0.692   1.416  1.00  0.00     0.217 HD
ENDBRANCH  14  19
ENDBRANCH   3  11
BRANCH   2  21
HETATM   21  O2  UNL     1      -0.138  -2.885  -0.498  1.00  0.00    -0.392 OA
HETATM   22  H1  UNL     1       0.398  -3.121  -1.294  1.00  0.00     0.210 HD
ENDBRANCH   2  21
BRANCH   7  23
HETATM   23  O3  UNL     1       4.443  -1.068  -1.019  1.00  0.00    -0.360 OA
HETATM   24  H2  UNL     1       5.391  -0.891  -1.287  1.00  0.00     0.217 HD
ENDBRANCH   7  23
BRANCH  10  25
HETATM   25  O4  UNL     1       3.943   3.619  -0.311  1.00  0.00    -0.361 OA
HETATM   26  H3  UNL     1       3.434   4.458  -0.056  1.00  0.00     0.217 HD
ENDBRANCH  10  25
TORSDOF 6
