REMARK  6 active torsions:
REMARK  status: ('A' for Active; 'I' for Inactive)
REMARK    1  A    between atoms: O2_2  and  C1_7 
REMARK    2  A    between atoms: O3_3  and  C7_13 
REMARK    3  A    between atoms: O4_4  and  C12_18 
REMARK    4  A    between atoms: O5_5  and  C13_19 
REMARK    5  A    between atoms: O6_6  and  C15_21 
REMARK    6  A    between atoms: C2_8  and  C6_12 
ROOT
HETATM    1  O1  UNL     1       0.221   0.565   0.427  1.00  0.00    -0.338 OA
HETATM    2  C1  UNL     1       0.328  -1.684  -0.243  1.00  0.00     0.156 C 
HETATM    3  C2  UNL     1      -0.401  -0.399  -0.400  1.00  0.00     0.191 C 
HETATM    4  C3  UNL     1       1.728  -1.528  -0.743  1.00  0.00     0.079 C 
HETATM    5  C4  UNL     1       2.332  -0.224  -0.331  1.00  0.00     0.011 A 
HETATM    6  C5  UNL     1       1.581   0.783   0.237  1.00  0.00     0.081 A 
HETATM    7  C7  UNL     1       3.703  -0.025  -0.531  1.00  0.00     0.077 A 
HETATM    8  C8  UNL     1       2.200   1.964   0.595  1.00  0.00     0.074 A 
HETATM    9  C11 UNL     1       4.279   1.172  -0.158  1.00  0.00     0.073 A 
HETATM   10  C12 UNL     1       3.546   2.191   0.412  1.00  0.00     0.071 A 
ENDROOT
BRANCH   3  11
HETATM   11  C6  UNL     1      -1.826  -0.433  -0.038  1.00  0.00    -0.024 A 
HETATM   12  C9  UNL     1      -2.468   0.775   0.122  1.00  0.00     0.049 A 
HETATM   13  C13 UNL     1      -3.823   0.835   0.466  1.00  0.00     0.099 A 
HETATM   14  C15 UNL     1      -4.559  -0.325   0.656  1.00  0.00     0.098 A 
HETATM   15  C14 UNL     1      -3.896  -1.549   0.490  1.00  0.00     0.040 A 
HETATM   16  C10 UNL     1      -2.561  -1.589   0.151  1.00  0.00     0.013 A 
BRANCH  13  17
HETATM   17  O5  UNL     1      -4.390   2.080   0.608  1.00  0.00    -0.358 OA
HETATM   18  H4  UNL     1      -5.346   2.263   0.850  1.00  0.00     0.217 HD
ENDBRANCH  13  17
BRANCH  14  19
HETATM   19  O6  UNL     1      -5.903  -0.306   0.997  1.00  0.00    -0.358 OA
HETATM   20  H5  UNL     1      -6.375   0.571   1.115  1.00  0.00     0.217 HD
ENDBRANCH  14  19
ENDBRANCH   3  11
BRANCH   2  21
HETATM   21  O2  UNL     1       0.393  -2.050   1.113  1.00  0.00    -0.392 OA
HETATM   22  H1  UNL     1       0.855  -2.900   1.238  1.00  0.00     0.210 HD
ENDBRANCH   2  21
BRANCH   7  23
HETATM   23  O3  UNL     1       4.467  -1.029  -1.101  1.00  0.00    -0.360 OA
HETATM   24  H2  UNL     1       5.451  -0.861  -1.234  1.00  0.00     0.217 HD
ENDBRANCH   7  23
BRANCH  10  25
HETATM   25  O4  UNL     1       4.180   3.369   0.766  1.00  0.00    -0.361 OA
HETATM   26  H3  UNL     1       4.259   4.150   0.102  1.00  0.00     0.217 HD
ENDBRANCH  10  25
TORSDOF 6
