REMARK  6 active torsions:
REMARK  status: ('A' for Active; 'I' for Inactive)
REMARK    1  A    between atoms: O1_1  and  C3_7 
REMARK    2  A    between atoms: O2_2  and  C9_13 
REMARK    3  A    between atoms: O2_2  and  C10_14 
REMARK    4  A    between atoms: O3_3  and  C5_9 
REMARK    5  A    between atoms: C1_5  and  C7_11 
REMARK    6  A    between atoms: C8_12  and  C10_14 
ROOT
HETATM    1  C1  UNL     1       1.107   0.226  -0.031  1.00  0.00    -0.033 A 
HETATM    2  C2  UNL     1       1.786  -0.475   0.945  1.00  0.00     0.051 A 
HETATM    3  C3  UNL     1       3.160  -0.463   1.056  1.00  0.00     0.102 A 
HETATM    4  C4  UNL     1       1.874   0.956  -0.910  1.00  0.00     0.014 A 
HETATM    5  C5  UNL     1       3.929   0.268   0.176  1.00  0.00     0.099 A 
HETATM    6  C6  UNL     1       3.270   0.974  -0.805  1.00  0.00     0.040 A 
ENDROOT
BRANCH   1   7
HETATM    7  C7  UNL     1      -0.354   0.178  -0.102  1.00  0.00     0.017 C 
HETATM    8  C8  UNL     1      -1.088   0.798  -0.977  1.00  0.00     0.083 C 
BRANCH   8   9
HETATM    9  C10 UNL     1      -2.559   0.649  -0.919  1.00  0.00     0.282 C 
HETATM   10  O4  UNL     1      -3.118  -0.059  -0.049  1.00  0.00    -0.260 OA
BRANCH   9  11
HETATM   11  O2  UNL     1      -3.386   1.287  -1.827  1.00  0.00    -0.319 OA
BRANCH  11  12
HETATM   12  C9  UNL     1      -4.764   1.140  -1.762  1.00  0.00     0.174 C 
HETATM   13  C11 UNL     1      -5.251  -0.267  -1.909  1.00  0.00     0.034 C 
ENDBRANCH  11  12
ENDBRANCH   9  11
ENDBRANCH   8   9
ENDBRANCH   1   7
BRANCH   3  14
HETATM   14  O1  UNL     1       3.821  -1.175   2.044  1.00  0.00    -0.353 OA
HETATM   15  C12 UNL     1       3.182  -1.963   3.013  1.00  0.00     0.210 C 
ENDBRANCH   3  14
BRANCH   5  16
HETATM   16  O3  UNL     1       5.323   0.283   0.284  1.00  0.00    -0.358 OA
HETATM   17  H1  UNL     1       5.755  -0.255   1.025  1.00  0.00     0.217 HD
ENDBRANCH   5  16
TORSDOF 6
