REMARK  2 active torsions:
REMARK  status: ('A' for Active; 'I' for Inactive)
REMARK    1  A    between atoms: O2_2  and  C1_3 
REMARK    2  A    between atoms: C2_4  and  C5_7 
ROOT
HETATM    1  O1  UNL     1       0.244  -0.748   0.578  1.00  0.00    -0.338 OA
HETATM    2  C1  UNL     1       0.082   0.661  -1.355  1.00  0.00     0.156 C 
HETATM    3  C2  UNL     1      -0.409   0.383   0.039  1.00  0.00     0.191 C 
HETATM    4  C3  UNL     1       1.555   0.870  -1.297  1.00  0.00     0.076 C 
HETATM    5  C4  UNL     1       2.275   0.075  -0.290  1.00  0.00    -0.022 A 
HETATM    6  C6  UNL     1       1.631  -0.713   0.622  1.00  0.00     0.076 A 
HETATM    7  C7  UNL     1       3.647   0.127  -0.269  1.00  0.00     0.010 A 
HETATM    8  C8  UNL     1       2.338  -1.462   1.571  1.00  0.00     0.037 A 
HETATM    9  C11 UNL     1       4.365  -0.602   0.658  1.00  0.00     0.001 A 
HETATM   10  C12 UNL     1       3.714  -1.396   1.577  1.00  0.00     0.003 A 
ENDROOT
BRANCH   3  11
HETATM   11  C5  UNL     1      -1.880   0.282   0.134  1.00  0.00    -0.026 A 
HETATM   12  C9  UNL     1      -2.727   0.594  -0.896  1.00  0.00     0.010 A 
HETATM   13  C13 UNL     1      -4.083   0.467  -0.710  1.00  0.00     0.001 A 
HETATM   14  C15 UNL     1      -4.593   0.031   0.494  1.00  0.00     0.000 A 
HETATM   15  C14 UNL     1      -3.762  -0.293   1.553  1.00  0.00     0.001 A 
HETATM   16  C10 UNL     1      -2.405  -0.154   1.334  1.00  0.00     0.010 A 
ENDBRANCH   3  11
BRANCH   2  17
HETATM   17  O2  UNL     1      -0.208  -0.324  -2.258  1.00  0.00    -0.392 OA
HETATM   18  H1  UNL     1      -0.307   0.034  -3.180  1.00  0.00     0.210 HD
ENDBRANCH   2  17
TORSDOF 2
