REMARK  6 active torsions:
REMARK  status: ('A' for Active; 'I' for Inactive)
REMARK    1  A    between atoms: O1_1  and  C7_12 
REMARK    2  A    between atoms: O1_1  and  C8_13 
REMARK    3  A    between atoms: O2_2  and  C4_9 
REMARK    4  A    between atoms: O3_3  and  C5_10 
REMARK    5  A    between atoms: O4_4  and  C6_11 
REMARK    6  A    between atoms: C1_6  and  C7_12 
ROOT
HETATM    1  C1  UNL     1      -0.217  -0.024   0.172  1.00  0.00     0.044 A 
HETATM    2  C2  UNL     1      -0.847   0.813   1.081  1.00  0.00     0.057 A 
HETATM    3  C3  UNL     1      -1.023  -0.683  -0.750  1.00  0.00     0.057 A 
HETATM    4  C4  UNL     1      -2.385  -0.483  -0.724  1.00  0.00     0.102 A 
HETATM    5  C5  UNL     1      -2.203   1.028   1.126  1.00  0.00     0.102 A 
HETATM    6  C6  UNL     1      -2.983   0.364   0.202  1.00  0.00     0.132 A 
ENDROOT
BRANCH   1   7
HETATM    7  C7  UNL     1       1.227  -0.201   0.188  1.00  0.00     0.293 C 
HETATM    8  O5  UNL     1       1.888   0.425   1.047  1.00  0.00    -0.259 OA
BRANCH   7   9
HETATM    9  O1  UNL     1       1.854  -1.021  -0.700  1.00  0.00    -0.318 OA
BRANCH   9  10
HETATM   10  C8  UNL     1       3.242  -1.250  -0.756  1.00  0.00     0.174 C 
HETATM   11  C9  UNL     1       4.035  -0.003  -1.007  1.00  0.00     0.034 C 
ENDBRANCH   9  10
ENDBRANCH   7   9
ENDBRANCH   1   7
BRANCH   5  12
HETATM   12  O3  UNL     1      -2.827   1.863   2.032  1.00  0.00    -0.358 OA
HETATM   13  H2  UNL     1      -2.337   2.389   2.744  1.00  0.00     0.217 HD
ENDBRANCH   5  12
BRANCH   4  14
HETATM   14  O2  UNL     1      -3.187  -1.153  -1.659  1.00  0.00    -0.358 OA
HETATM   15  H1  UNL     1      -4.184  -1.026  -1.664  1.00  0.00     0.217 HD
ENDBRANCH   4  14
BRANCH   6  16
HETATM   16  O4  UNL     1      -4.360   0.540   0.195  1.00  0.00    -0.356 OA
HETATM   17  H3  UNL     1      -4.790   1.150   0.862  1.00  0.00     0.218 HD
ENDBRANCH   6  16
TORSDOF 6
