REMARK  5 active torsions:
REMARK  status: ('A' for Active; 'I' for Inactive)
REMARK    1  A    between atoms: O1_1  and  C8_11 
REMARK    2  A    between atoms: O1_1  and  C10_13 
REMARK    3  A    between atoms: O2_2  and  C7_10 
REMARK    4  A    between atoms: C1_4  and  C4_7 
REMARK    5  A    between atoms: C9_12  and  C10_13 
ROOT
HETATM    1  C1  UNL     1      -1.623   0.027   0.365  1.00  0.00    -0.036 A 
HETATM    2  C2  UNL     1      -2.232  -0.047  -0.862  1.00  0.00     0.014 A 
HETATM    3  C3  UNL     1      -2.417   0.242   1.498  1.00  0.00     0.014 A 
HETATM    4  C5  UNL     1      -3.605   0.088  -0.969  1.00  0.00     0.037 A 
HETATM    5  C6  UNL     1      -3.781   0.377   1.395  1.00  0.00     0.037 A 
HETATM    6  C7  UNL     1      -4.372   0.299   0.153  1.00  0.00     0.065 A 
ENDROOT
BRANCH   1   7
HETATM    7  C4  UNL     1      -0.203  -0.104   0.555  1.00  0.00     0.017 C 
HETATM    8  C9  UNL     1       0.618  -0.305  -0.428  1.00  0.00     0.083 C 
BRANCH   8   9
HETATM    9  C10 UNL     1       2.070  -0.429  -0.146  1.00  0.00     0.282 C 
HETATM   10  O3  UNL     1       2.477  -0.338   1.032  1.00  0.00    -0.260 OA
BRANCH   9  11
HETATM   11  O1  UNL     1       2.978  -0.643  -1.164  1.00  0.00    -0.319 OA
BRANCH  11  12
HETATM   12  C8  UNL     1       4.343  -0.751  -0.830  1.00  0.00     0.174 C 
HETATM   13  C11 UNL     1       4.877   0.491  -0.156  1.00  0.00     0.034 C 
ENDBRANCH  11  12
ENDBRANCH   9  11
ENDBRANCH   8   9
ENDBRANCH   1   7
BRANCH   6  14
HETATM   14  O2  UNL     1      -5.749   0.430   0.005  1.00  0.00    -0.361 OA
HETATM   15  H1  UNL     1      -6.368   0.585   0.775  1.00  0.00     0.217 HD
ENDBRANCH   6  14
TORSDOF 5
