REMARK  5 active torsions:
REMARK  status: ('A' for Active; 'I' for Inactive)
REMARK    1  A    between atoms: O1_1  and  C7_11 
REMARK    2  A    between atoms: O1_1  and  C8_12 
REMARK    3  A    between atoms: O2_2  and  C4_8 
REMARK    4  A    between atoms: O3_3  and  C5_9 
REMARK    5  A    between atoms: C1_5  and  C7_11 
ROOT
HETATM    1  C1  UNL     1      -0.399   0.126  -0.266  1.00  0.00     0.042 A 
HETATM    2  C2  UNL     1      -1.204   1.209  -0.542  1.00  0.00     0.057 A 
HETATM    3  C3  UNL     1      -0.981  -1.009   0.252  1.00  0.00     0.020 A 
HETATM    4  C4  UNL     1      -2.568   1.135  -0.296  1.00  0.00     0.099 A 
HETATM    5  C5  UNL     1      -3.124  -0.020   0.225  1.00  0.00     0.098 A 
HETATM    6  C6  UNL     1      -2.323  -1.096   0.500  1.00  0.00     0.040 A 
ENDROOT
BRANCH   1   7
HETATM    7  C7  UNL     1       1.057   0.174  -0.516  1.00  0.00     0.293 C 
HETATM    8  O4  UNL     1       1.597   1.206  -0.989  1.00  0.00    -0.259 OA
BRANCH   7   9
HETATM    9  O1  UNL     1       1.877  -0.901  -0.245  1.00  0.00    -0.318 OA
BRANCH   9  10
HETATM   10  C8  UNL     1       3.261  -0.928  -0.456  1.00  0.00     0.174 C 
HETATM   11  C9  UNL     1       4.002   0.132   0.331  1.00  0.00     0.034 C 
ENDBRANCH   9  10
ENDBRANCH   7   9
ENDBRANCH   1   7
BRANCH   4  12
HETATM   12  O2  UNL     1      -3.365   2.216  -0.573  1.00  0.00    -0.358 OA
HETATM   13  H1  UNL     1      -4.353   2.227  -0.419  1.00  0.00     0.217 HD
ENDBRANCH   4  12
BRANCH   5  14
HETATM   14  O3  UNL     1      -4.489  -0.075   0.464  1.00  0.00    -0.358 OA
HETATM   15  H2  UNL     1      -4.897  -0.914   0.843  1.00  0.00     0.217 HD
ENDBRANCH   5  14
TORSDOF 5
