REMARK  6 active torsions:
REMARK  status: ('A' for Active; 'I' for Inactive)
REMARK    1  A    between atoms: O1_1  and  C2_7 
REMARK    2  A    between atoms: O2_2  and  C3_8 
REMARK    3  A    between atoms: O3_3  and  C7_12 
REMARK    4  A    between atoms: O3_3  and  C8_13 
REMARK    5  A    between atoms: O4_4  and  C6_11 
REMARK    6  A    between atoms: C1_6  and  C7_12 
ROOT
HETATM    1  C1  UNL     1       0.036  -0.293  -0.319  1.00  0.00     0.045 A 
HETATM    2  C2  UNL     1      -2.157  -1.055   0.284  1.00  0.00     0.105 A 
HETATM    3  C3  UNL     1      -1.613   1.293   0.466  1.00  0.00     0.105 A 
HETATM    4  C4  UNL     1      -0.352   0.985   0.005  1.00  0.00     0.057 A 
HETATM    5  C5  UNL     1      -0.883  -1.305  -0.173  1.00  0.00     0.057 A 
HETATM    6  C6  UNL     1      -2.516   0.239   0.601  1.00  0.00     0.133 A 
ENDROOT
BRANCH   1   7
HETATM    7  C7  UNL     1       1.396  -0.491  -0.797  1.00  0.00     0.293 C 
HETATM    8  O5  UNL     1       1.739  -1.666  -1.090  1.00  0.00    -0.259 OA
BRANCH   7   9
HETATM    9  O3  UNL     1       2.315   0.507  -0.945  1.00  0.00    -0.318 OA
BRANCH   9  10
HETATM   10  C8  UNL     1       3.624   0.370  -1.396  1.00  0.00     0.174 C 
HETATM   11  C9  UNL     1       4.458  -0.548  -0.528  1.00  0.00     0.034 C 
ENDBRANCH   9  10
ENDBRANCH   7   9
ENDBRANCH   1   7
BRANCH   3  12
HETATM   12  O2  UNL     1      -1.944   2.588   0.774  1.00  0.00    -0.353 OA
HETATM   13  C11 UNL     1      -1.094   3.686   0.663  1.00  0.00     0.210 C 
ENDBRANCH   3  12
BRANCH   2  14
HETATM   14  O1  UNL     1      -3.100  -2.053   0.440  1.00  0.00    -0.353 OA
HETATM   15  C10 UNL     1      -2.852  -3.410   0.150  1.00  0.00     0.210 C 
ENDBRANCH   2  14
BRANCH   6  16
HETATM   16  O4  UNL     1      -3.801   0.489   1.061  1.00  0.00    -0.356 OA
HETATM   17  H1  UNL     1      -4.059   1.437   1.291  1.00  0.00     0.218 HD
ENDBRANCH   6  16
TORSDOF 6
