REMARK  5 active torsions:
REMARK  status: ('A' for Active; 'I' for Inactive)
REMARK    1  A    between atoms: O1_1  and  C7_11 
REMARK    2  A    between atoms: O1_1  and  C8_12 
REMARK    3  A    between atoms: O2_2  and  C2_6 
REMARK    4  A    between atoms: O3_3  and  C5_9 
REMARK    5  A    between atoms: C1_5  and  C7_11 
ROOT
HETATM    1  C1  UNL     1       0.018  -0.255   0.372  1.00  0.00     0.042 A 
HETATM    2  C2  UNL     1      -2.364  -0.364  -0.027  1.00  0.00     0.102 A 
HETATM    3  C3  UNL     1      -1.136   0.298  -0.138  1.00  0.00     0.057 A 
HETATM    4  C4  UNL     1      -0.092  -1.481   0.990  1.00  0.00     0.020 A 
HETATM    5  C5  UNL     1      -2.432  -1.578   0.593  1.00  0.00     0.099 A 
HETATM    6  C6  UNL     1      -1.294  -2.148   1.108  1.00  0.00     0.040 A 
ENDROOT
BRANCH   1   7
HETATM    7  C7  UNL     1       1.296   0.447   0.250  1.00  0.00     0.293 C 
HETATM    8  O4  UNL     1       1.390   1.567  -0.316  1.00  0.00    -0.259 OA
BRANCH   7   9
HETATM    9  O1  UNL     1       2.480  -0.081   0.752  1.00  0.00    -0.318 OA
BRANCH   9  10
HETATM   10  C8  UNL     1       3.709   0.613   0.625  1.00  0.00     0.174 C 
HETATM   11  C9  UNL     1       4.077   0.859  -0.816  1.00  0.00     0.034 C 
ENDBRANCH   9  10
ENDBRANCH   7   9
ENDBRANCH   1   7
BRANCH   2  12
HETATM   12  O2  UNL     1      -3.532   0.186  -0.538  1.00  0.00    -0.353 OA
HETATM   13  C10 UNL     1      -3.491   1.461  -1.195  1.00  0.00     0.210 C 
ENDBRANCH   2  12
BRANCH   5  14
HETATM   14  O3  UNL     1      -3.650  -2.257   0.714  1.00  0.00    -0.358 OA
HETATM   15  H1  UNL     1      -3.701  -3.143   1.167  1.00  0.00     0.217 HD
ENDBRANCH   5  14
TORSDOF 5
